<?xml version="1.0" encoding="UTF-8" standalone="no"?>
<flow xmlns="urn:opendaylight:flow:inventory">
<id>TEST_FLOW</id>
<priority>63000</priority>
<table_id>0</table_id>
<hard-timeout>0</hard-timeout>
<installHw>true</installHw>
<match>
<ethernet-match>
<ethernet-type>
<type>2048</type>
</ethernet-type>
<ethernet-destination>
<address>fa:16:3e:f8:07:76</address>
</ethernet-destination>
</ethernet-match>
<ipv4-destination>100.0.0.5/32</ipv4-destination>
</match>
<strict>false</strict>
<cookie>110100480</cookie>
<flow-name>TEST_FLOW</flow-name>
<instructions>
<instruction>
<order>0</order>
<apply-actions>
<action>
<order>0</order>
<output-action>
<output-node-connector>6</output-node-connector>
<max-length>60</max-length>
</output-action>
</action>
</apply-actions>
</instruction>
</instructions>
<idle-timeout>0</idle-timeout>
<barrier>false</barrier>
</flow>
